examples/Nordic/data/inputs/operating_point_1/Nordic.xiidm
<?xml version="1.0" encoding="UTF-8"?>
<iidm:network xmlns:iidm="http://www.powsybl.org/schema/iidm/1_5" id="Nordic32_corrige" caseDate="2019-07-30T16:39:00+02:00" forecastDistance="0" sourceFormat="NF">
    <iidm:substation id="S_4011" country="FR" tso="RTE">
        <iidm:voltageLevel id="1011_130" nominalV="130" highVoltageLimit="136.5" topologyKind="NODE_BREAKER">
            <iidm:nodeBreakerTopology>
                <iidm:busbarSection id="1011_131" node="0"/>
                <iidm:switch id="Tr1011-4011_disconnector2" kind="DISCONNECTOR" retained="true" open="false" node1="0" node2="1"/>
                <iidm:switch id="Tr1011-4011_breaker2" kind="BREAKER" retained="true" open="false" node1="1" node2="2"/>
                <iidm:switch id="Tr11-1011_disconnector1" kind="DISCONNECTOR" retained="true" open="false" node1="0" node2="3"/>
                <iidm:switch id="Tr11-1011_breaker1" kind="BREAKER" retained="true" open="false" node1="3" node2="4"/>
                <iidm:switch id="L1011-1013a_disconnector1" kind="DISCONNECTOR" retained="true" open="false" node1="0" node2="5"/>
                <iidm:switch id="L1011-1013a_breaker1" kind="BREAKER" retained="true" open="false" node1="5" node2="6"/>
                <iidm:switch id="L1011-1013b_disconnector1" kind="DISCONNECTOR" retained="true" open="false" node1="0" node2="7"/>
                <iidm:switch id="L1011-1013b_breaker1" kind="BREAKER" retained="true" open="false" node1="7" node2="8"/>
                <iidm:bus v="145.21851219782553" angle="35.546047121609874" nodes="0,1,2,3,4,5,6,7,8"/>
            </iidm:nodeBreakerTopology>
        </iidm:voltageLevel>
        <iidm:voltageLevel id="4011_400" nominalV="400" highVoltageLimit="420" topologyKind="NODE_BREAKER">
            <iidm:nodeBreakerTopology>
                <iidm:busbarSection id="4011_401" node="0"/>
                <iidm:switch id="Tr1011-4011_disconnector1" kind="DISCONNECTOR" retained="true" open="false" node1="0" node2="1"/>
                <iidm:switch id="Tr1011-4011_breaker1" kind="BREAKER" retained="true" open="false" node1="1" node2="2"/>
                <iidm:switch id="Tr4011-g9_disconnector1" kind="DISCONNECTOR" retained="true" open="false" node1="0" node2="3"/>
                <iidm:switch id="Tr4011-g9_breaker1" kind="BREAKER" retained="true" open="false" node1="3" node2="4"/>
                <iidm:switch id="L4011-4012_disconnector1" kind="DISCONNECTOR" retained="true" open="false" node1="0" node2="5"/>
                <iidm:switch id="L4011-4012_breaker1" kind="BREAKER" retained="true" open="false" node1="5" node2="6"/>
                <iidm:switch id="L4011-4021_disconnector2" kind="DISCONNECTOR" retained="true" open="false" node1="0" node2="7"/>
                <iidm:switch id="L4011-4021_breaker2" kind="BREAKER" retained="true" open="false" node1="7" node2="8"/>
                <iidm:switch id="L4011-4022_disconnector1" kind="DISCONNECTOR" retained="true" open="false" node1="0" node2="9"/>
                <iidm:switch id="L4011-4022_breaker1" kind="BREAKER" retained="true" open="false" node1="9" node2="10"/>
                <iidm:switch id="L4011-4071_disconnector2" kind="DISCONNECTOR" retained="true" open="false" node1="0" node2="11"/>
                <iidm:switch id="L4011-4071_breaker2" kind="BREAKER" retained="true" open="false" node1="11" node2="12"/>
                <iidm:bus v="430.99815992937766" angle="35.367528409985184" nodes="0,1,2,3,4,5,6,7,8,9,10,11,12"/>
            </iidm:nodeBreakerTopology>
        </iidm:voltageLevel>
        <iidm:voltageLevel id="B11___20" nominalV="20" highVoltageLimit="21" topologyKind="NODE_BREAKER">
            <iidm:nodeBreakerTopology>
                <iidm:busbarSection id="B11___21" node="0"/>
                <iidm:switch id="11_1_disconnector" kind="DISCONNECTOR" retained="true" open="false" node1="0" node2="1"/>
                <iidm:switch id="11_1_breaker" kind="BREAKER" retained="true" open="false" node1="1" node2="2"/>
                <iidm:switch id="Tr11-1011_disconnector2" kind="DISCONNECTOR" retained="true" open="false" node1="0" node2="3"/>
                <iidm:switch id="Tr11-1011_breaker2" kind="BREAKER" retained="true" open="false" node1="3" node2="4"/>
                <iidm:bus v="20.145587616752731" angle="32.873865269507199" nodes="0,1,2,3,4"/>
            </iidm:nodeBreakerTopology>
            <iidm:load id="11_1" loadType="UNDEFINED" p0="199.99400329589844" q0="68.7958984375" node="2" p="192.50758629068116" q="66.226352214292945"/>
        </iidm:voltageLevel>
        <iidm:voltageLevel id="BG09__15" nominalV="15" highVoltageLimit="15.750001907348633" topologyKind="NODE_BREAKER">
            <iidm:nodeBreakerTopology>
                <iidm:busbarSection id="BG09__11" node="0"/>
                <iidm:switch id="g09_disconnector" kind="DISCONNECTOR" retained="true" open="false" node1="0" node2="1"/>
                <iidm:switch id="g09_breaker" kind="BREAKER" retained="true" open="false" node1="1" node2="2"/>
                <iidm:switch id="Tr4011-g9_disconnector2" kind="DISCONNECTOR" retained="true" open="false" node1="0" node2="3"/>
                <iidm:switch id="Tr4011-g9_breaker2" kind="BREAKER" retained="true" open="false" node1="3" node2="4"/>
                <iidm:bus v="15.086088271242476" angle="38.779673013449809" nodes="0,1,2,3,4"/>
            </iidm:nodeBreakerTopology>
            <iidm:generator id="g09" energySource="HYDRO" minP="0" maxP="9999" voltageRegulatorOn="true" targetP="668.5" targetV="14.981999397277832" targetQ="201.25199890136719" node="2" p="-409.51358975033088" q="124.89776726060984">
                <iidm:property name="genreCvg" value="AUTRE"/>
                <iidm:reactiveCapabilityCurve>
                    <iidm:point p="0" minQ="-1000" maxQ="1000"/>
                    <iidm:point p="9999" minQ="-1000" maxQ="1000"/>
                </iidm:reactiveCapabilityCurve>
            </iidm:generator>
        </iidm:voltageLevel>
        <iidm:twoWindingsTransformer id="Tr1011-4011" r="0" x="1.3519998788833618" g="0" b="0" ratedU1="400" ratedU2="130" node1="2" voltageLevelId1="4011_400" node2="2" voltageLevelId2="1011_130" p1="-49.344746965633966" q1="243.08396070685495" p2="49.344746965634059" q2="-239.25786441371119">
            <iidm:ratioTapChanger lowTapPosition="0" tapPosition="0" loadTapChangingCapabilities="false">
                <iidm:step r="0" x="0" g="0" b="0" rho="1.0526316165924072"/>
                <iidm:step r="0" x="0" g="0" b="0" rho="1.0416667461395264"/>
                <iidm:step r="0" x="0" g="0" b="0" rho="1.0309277772903442"/>
                <iidm:step r="0" x="0" g="0" b="0" rho="1.0204081535339355"/>
                <iidm:step r="0" x="0" g="0" b="0" rho="1.0101009607315063"/>
                <iidm:step r="0" x="0" g="0" b="0" rho="1"/>
                <iidm:step r="0" x="0" g="0" b="0" rho="0.99009901285171509"/>
                <iidm:step r="0" x="0" g="0" b="0" rho="0.98039215803146362"/>
                <iidm:step r="0" x="0" g="0" b="0" rho="0.97087383270263672"/>
                <iidm:step r="0" x="0" g="0" b="0" rho="0.96153849363327026"/>
                <iidm:step r="0" x="0" g="0" b="0" rho="0.95238101482391357"/>
            </iidm:ratioTapChanger>
            <iidm:currentLimits1 permanentLimit="5551.43994140625"/>
            <iidm:currentLimits2 permanentLimit="5551.43994140625"/>
        </iidm:twoWindingsTransformer>
        <iidm:twoWindingsTransformer id="Tr11-1011" r="0" x="0.10000003129243851" g="0" b="0" ratedU1="130" ratedU2="20" node1="4" voltageLevelId1="1011_130" node2="4" voltageLevelId2="B11___20" p1="192.50758629345603" q1="76.43841447068705" p2="-192.507586293456" q2="-66.226352212927836">
            <iidm:ratioTapChanger lowTapPosition="0" tapPosition="29" targetDeadband="0" loadTapChangingCapabilities="true" regulating="true" targetV="20">
                <iidm:terminalRef id="Tr11-1011" side="TWO"/>
                <iidm:step r="0" x="0" g="0" b="0" rho="1.25"/>
                <iidm:step r="0" x="0" g="0" b="0" rho="1.2345678806304932"/>
                <iidm:step r="0" x="0" g="0" b="0" rho="1.2195122241973877"/>
                <iidm:step r="0" x="0" g="0" b="0" rho="1.2048193216323853"/>
                <iidm:step r="0" x="0" g="0" b="0" rho="1.1904761791229248"/>
                <iidm:step r="0" x="0" g="0" b="0" rho="1.1764705181121826"/>
                <iidm:step r="0" x="0" g="0" b="0" rho="1.1627906560897827"/>
                <iidm:step r="0" x="0" g="0" b="0" rho="1.1494252681732178"/>
                <iidm:step r="0" x="0" g="0" b="0" rho="1.1363636255264282"/>
                <iidm:step r="0" x="0" g="0" b="0" rho="1.1235954761505127"/>
                <iidm:step r="0" x="0" g="0" b="0" rho="1.1111111640930176"/>
                <iidm:step r="0" x="0" g="0" b="0" rho="1.0989010334014893"/>
                <iidm:step r="0" x="0" g="0" b="0" rho="1.0869565010070801"/>
                <iidm:step r="0" x="0" g="0" b="0" rho="1.0752688646316528"/>
                <iidm:step r="0" x="0" g="0" b="0" rho="1.063829779624939"/>
                <iidm:step r="0" x="0" g="0" b="0" rho="1.0526316165924072"/>
                <iidm:step r="0" x="0" g="0" b="0" rho="1.0416667461395264"/>
                <iidm:step r="0" x="0" g="0" b="0" rho="1.0309277772903442"/>
                <iidm:step r="0" x="0" g="0" b="0" rho="1.0204081535339355"/>
                <iidm:step r="0" x="0" g="0" b="0" rho="1.0101009607315063"/>
                <iidm:step r="0" x="0" g="0" b="0" rho="1"/>
                <iidm:step r="0" x="0" g="0" b="0" rho="0.99009901285171509"/>
                <iidm:step r="0" x="0" g="0" b="0" rho="0.98039215803146362"/>
                <iidm:step r="0" x="0" g="0" b="0" rho="0.97087383270263672"/>
                <iidm:step r="0" x="0" g="0" b="0" rho="0.96153849363327026"/>
                <iidm:step r="0" x="0" g="0" b="0" rho="0.95238101482391357"/>
                <iidm:step r="0" x="0" g="0" b="0" rho="0.94339627027511597"/>
                <iidm:step r="0" x="0" g="0" b="0" rho="0.93457937240600586"/>
                <iidm:step r="0" x="0" g="0" b="0" rho="0.92592591047286987"/>
                <iidm:step r="0" x="0" g="0" b="0" rho="0.91743117570877075"/>
                <iidm:step r="0" x="0" g="0" b="0" rho="0.90909087657928467"/>
                <iidm:step r="0" x="0" g="0" b="0" rho="0.90090090036392212"/>
                <iidm:step r="0" x="0" g="0" b="0" rho="0.8928571343421936"/>
            </iidm:ratioTapChanger>
            <iidm:currentLimits1 permanentLimit="11547"/>
            <iidm:currentLimits2 permanentLimit="11547"/>
        </iidm:twoWindingsTransformer>
        <iidm:twoWindingsTransformer id="Tr4011-g9" r="0" x="0.033750001341104507" g="0" b="0" ratedU1="400" ratedU2="15" node1="4" voltageLevelId1="4011_400" node2="4" voltageLevelId2="BG09__15" p1="-409.51358974572025" q1="152.07998848500034" p2="409.51358974572003" q2="-124.89776726060997">
            <iidm:ratioTapChanger lowTapPosition="0" tapPosition="10" loadTapChangingCapabilities="false">
                <iidm:step r="0" x="0" g="0" b="0" rho="1.0526316165924072"/>
                <iidm:step r="0" x="0" g="0" b="0" rho="1.0416667461395264"/>
                <iidm:step r="0" x="0" g="0" b="0" rho="1.0309277772903442"/>
                <iidm:step r="0" x="0" g="0" b="0" rho="1.0204081535339355"/>
                <iidm:step r="0" x="0" g="0" b="0" rho="1.0101009607315063"/>
                <iidm:step r="0" x="0" g="0" b="0" rho="1"/>
                <iidm:step r="0" x="0" g="0" b="0" rho="0.99009901285171509"/>
                <iidm:step r="0" x="0" g="0" b="0" rho="0.98039215803146362"/>
                <iidm:step r="0" x="0" g="0" b="0" rho="0.97087383270263672"/>
                <iidm:step r="0" x="0" g="0" b="0" rho="0.96153849363327026"/>
                <iidm:step r="0" x="0" g="0" b="0" rho="0.95238101482391357"/>
            </iidm:ratioTapChanger>
            <iidm:currentLimits1 permanentLimit="38490"/>
            <iidm:currentLimits2 permanentLimit="38490"/>
        </iidm:twoWindingsTransformer>
    </iidm:substation>
    <iidm:substation id="S_4012" country="FR" tso="RTE">
        <iidm:voltageLevel id="1012_130" nominalV="130" highVoltageLimit="136.5" topologyKind="NODE_BREAKER">
            <iidm:nodeBreakerTopology>
                <iidm:busbarSection id="1012_131" node="0"/>
                <iidm:switch id="Tr1012-4012_disconnector2" kind="DISCONNECTOR" retained="true" open="false" node1="0" node2="1"/>
                <iidm:switch id="Tr1012-4012_breaker2" kind="BREAKER" retained="true" open="false" node1="1" node2="2"/>
                <iidm:switch id="Tr1012-g1_disconnector1" kind="DISCONNECTOR" retained="true" open="false" node1="0" node2="3"/>
                <iidm:switch id="Tr1012-g1_breaker1" kind="BREAKER" retained="true" open="false" node1="3" node2="4"/>
                <iidm:switch id="Tr12-1012_disconnector1" kind="DISCONNECTOR" retained="true" open="false" node1="0" node2="5"/>
                <iidm:switch id="Tr12-1012_breaker1" kind="BREAKER" retained="true" open="false" node1="5" node2="6"/>
                <iidm:switch id="L1012-1014a_disconnector2" kind="DISCONNECTOR" retained="true" open="false" node1="0" node2="7"/>
                <iidm:switch id="L1012-1014a_breaker2" kind="BREAKER" retained="true" open="false" node1="7" node2="8"/>
                <iidm:switch id="L1012-1014b_disconnector2" kind="DISCONNECTOR" retained="true" open="false" node1="0" node2="9"/>
                <iidm:switch id="L1012-1014b_breaker2" kind="BREAKER" retained="true" open="false" node1="9" node2="10"/>
                <iidm:bus v="143.23916868163408" angle="37.9541909137833" nodes="0,1,2,3,4,5,6,7,8,9,10"/>
            </iidm:nodeBreakerTopology>
        </iidm:voltageLevel>
        <iidm:voltageLevel id="4012_400" nominalV="400" highVoltageLimit="420" topologyKind="NODE_BREAKER">
            <iidm:nodeBreakerTopology>
                <iidm:busbarSection id="4012_401" node="0"/>
                <iidm:switch id="4012-Ind_disconnector" kind="DISCONNECTOR" retained="true" open="false" node1="0" node2="1"/>
                <iidm:switch id="4012-Ind_breaker" kind="BREAKER" retained="true" open="false" node1="1" node2="2"/>
                <iidm:switch id="Tr1012-4012_disconnector1" kind="DISCONNECTOR" retained="true" open="false" node1="0" node2="3"/>
                <iidm:switch id="Tr1012-4012_breaker1" kind="BREAKER" retained="true" open="false" node1="3" node2="4"/>
                <iidm:switch id="Tr4012-g10_disconnector1" kind="DISCONNECTOR" retained="true" open="false" node1="0" node2="5"/>
                <iidm:switch id="Tr4012-g10_breaker1" kind="BREAKER" retained="true" open="false" node1="5" node2="6"/>
                <iidm:switch id="L4011-4012_disconnector2" kind="DISCONNECTOR" retained="true" open="false" node1="0" node2="7"/>
                <iidm:switch id="L4011-4012_breaker2" kind="BREAKER" retained="true" open="false" node1="7" node2="8"/>
                <iidm:switch id="L4012-4022_disconnector1" kind="DISCONNECTOR" retained="true" open="false" node1="0" node2="9"/>
                <iidm:switch id="L4012-4022_breaker1" kind="BREAKER" retained="true" open="false" node1="9" node2="10"/>
                <iidm:switch id="L4012-4071_disconnector2" kind="DISCONNECTOR" retained="true" open="false" node1="0" node2="11"/>
                <iidm:switch id="L4012-4071_breaker2" kind="BREAKER" retained="true" open="false" node1="11" node2="12"/>
                <iidm:bus v="427.87890257695784" angle="36.593830207479783" nodes="0,1,2,3,4,5,6,7,8,9,10,11,12"/>
            </iidm:nodeBreakerTopology>
            <iidm:shunt id="4012-Ind" sectionCount="1" voltageRegulatorOn="false" node="2" q="114.42521948643558">
                <iidm:property name="qMax" value="-100"/>
                <iidm:shuntLinearModel bPerSection="-0.00062499998603016138" maximumSectionCount="1"/>
            </iidm:shunt>
        </iidm:voltageLevel>
        <iidm:voltageLevel id="B12___20" nominalV="20" highVoltageLimit="21" topologyKind="NODE_BREAKER">
            <iidm:nodeBreakerTopology>
                <iidm:busbarSection id="B12___21" node="0"/>
                <iidm:switch id="12_1_disconnector" kind="DISCONNECTOR" retained="true" open="false" node1="0" node2="1"/>
                <iidm:switch id="12_1_breaker" kind="BREAKER" retained="true" open="false" node1="1" node2="2"/>
                <iidm:switch id="Tr12-1012_disconnector2" kind="DISCONNECTOR" retained="true" open="false" node1="0" node2="3"/>
                <iidm:switch id="Tr12-1012_breaker2" kind="BREAKER" retained="true" open="false" node1="3" node2="4"/>
                <iidm:bus v="20.200732720032235" angle="36.022800168064293" nodes="0,1,2,3,4"/>
            </iidm:nodeBreakerTopology>
            <iidm:load id="12_1" loadType="UNDEFINED" p0="300.00201416015625" q0="83.801200866699219" node="2" p="208.37598339675716" q="58.212924628124298"/>
        </iidm:voltageLevel>
        <iidm:voltageLevel id="BG01__15" nominalV="15" highVoltageLimit="15.750001907348633" topologyKind="NODE_BREAKER">
            <iidm:nodeBreakerTopology>
                <iidm:busbarSection id="BG01__11" node="0"/>
                <iidm:switch id="g01_disconnector" kind="DISCONNECTOR" retained="true" open="false" node1="0" node2="1"/>
                <iidm:switch id="g01_breaker" kind="BREAKER" retained="true" open="false" node1="1" node2="2"/>
                <iidm:switch id="Tr1012-g1_disconnector2" kind="DISCONNECTOR" retained="true" open="false" node1="0" node2="3"/>
                <iidm:switch id="Tr1012-g1_breaker2" kind="BREAKER" retained="true" open="false" node1="3" node2="4"/>
                <iidm:bus v="16.111285028750959" angle="41.522178787829361" nodes="0,1,2,3,4"/>
            </iidm:nodeBreakerTopology>
            <iidm:generator id="g01" energySource="HYDRO" minP="0" maxP="9999" voltageRegulatorOn="true" targetP="600" targetV="16.025999069213867" targetQ="58.340000152587891" node="2" p="-392.80409898702908" q="146.75355480993406">
                <iidm:property name="genreCvg" value="AUTRE"/>
                <iidm:reactiveCapabilityCurve>
                    <iidm:point p="0" minQ="-800" maxQ="800"/>
                    <iidm:point p="9999" minQ="-800" maxQ="800"/>
                </iidm:reactiveCapabilityCurve>
            </iidm:generator>
        </iidm:voltageLevel>
        <iidm:voltageLevel id="BG10__15" nominalV="15" highVoltageLimit="15.750001907348633" topologyKind="NODE_BREAKER">
            <iidm:nodeBreakerTopology>
                <iidm:busbarSection id="BG10__11" node="0"/>
                <iidm:switch id="g10_disconnector" kind="DISCONNECTOR" retained="true" open="false" node1="0" node2="1"/>
                <iidm:switch id="g10_breaker" kind="BREAKER" retained="true" open="false" node1="1" node2="2"/>
                <iidm:switch id="Tr4012-g10_disconnector2" kind="DISCONNECTOR" retained="true" open="false" node1="0" node2="3"/>
                <iidm:switch id="Tr4012-g10_breaker2" kind="BREAKER" retained="true" open="false" node1="3" node2="4"/>
                <iidm:bus v="15.32935938807951" angle="40.653188406122077" nodes="0,1,2,3,4"/>
            </iidm:nodeBreakerTopology>
            <iidm:generator id="g10" energySource="HYDRO" minP="0" maxP="9999" voltageRegulatorOn="true" targetP="600" targetV="15.235500335693359" targetQ="255.70100402832031" node="2" p="-393.07410081314293" q="-31.360456633990452">
                <iidm:property name="genreCvg" value="AUTRE"/>
                <iidm:reactiveCapabilityCurve>
                    <iidm:point p="0" minQ="-800" maxQ="800"/>
                    <iidm:point p="9999" minQ="-800" maxQ="800"/>
                </iidm:reactiveCapabilityCurve>
            </iidm:generator>
        </iidm:voltageLevel>
        <iidm:twoWindingsTransformer id="Tr1012-4012" r="0" x="1.3519998788833618" g="0" b="0" ratedU1="400" ratedU2="130" node1="4" voltageLevelId1="4012_400" node2="2" voltageLevelId2="1012_130" p1="-368.17680616585278" q1="344.38545474220672" p2="368.17680616585295" q2="-328.34875936780941">
            <iidm:ratioTapChanger lowTapPosition="0" tapPosition="0" loadTapChangingCapabilities="false">
                <iidm:step r="0" x="0" g="0" b="0" rho="1.0526316165924072"/>
                <iidm:step r="0" x="0" g="0" b="0" rho="1.0416667461395264"/>
                <iidm:step r="0" x="0" g="0" b="0" rho="1.0309277772903442"/>
                <iidm:step r="0" x="0" g="0" b="0" rho="1.0204081535339355"/>
                <iidm:step r="0" x="0" g="0" b="0" rho="1.0101009607315063"/>
                <iidm:step r="0" x="0" g="0" b="0" rho="1"/>
                <iidm:step r="0" x="0" g="0" b="0" rho="0.99009901285171509"/>
                <iidm:step r="0" x="0" g="0" b="0" rho="0.98039215803146362"/>
                <iidm:step r="0" x="0" g="0" b="0" rho="0.97087383270263672"/>
                <iidm:step r="0" x="0" g="0" b="0" rho="0.96153849363327026"/>
                <iidm:step r="0" x="0" g="0" b="0" rho="0.95238101482391357"/>
            </iidm:ratioTapChanger>
            <iidm:currentLimits1 permanentLimit="5551.43994140625"/>
            <iidm:currentLimits2 permanentLimit="5551.43994140625"/>
        </iidm:twoWindingsTransformer>
        <iidm:twoWindingsTransformer id="Tr1012-g1" r="0" x="0.042187508195638657" g="0" b="0" ratedU1="130" ratedU2="15" node1="4" voltageLevelId1="1012_130" node2="4" voltageLevelId2="BG01__15" p1="-392.80409899259394" q1="175.33081597516224" p2="392.80409899259394" q2="-146.75355480993429">
            <iidm:ratioTapChanger lowTapPosition="0" tapPosition="5" loadTapChangingCapabilities="false">
                <iidm:step r="0" x="0" g="0" b="0" rho="1.0526316165924072"/>
                <iidm:step r="0" x="0" g="0" b="0" rho="1.0416667461395264"/>
                <iidm:step r="0" x="0" g="0" b="0" rho="1.0309277772903442"/>
                <iidm:step r="0" x="0" g="0" b="0" rho="1.0204081535339355"/>
                <iidm:step r="0" x="0" g="0" b="0" rho="1.0101009607315063"/>
                <iidm:step r="0" x="0" g="0" b="0" rho="1"/>
                <iidm:step r="0" x="0" g="0" b="0" rho="0.99009901285171509"/>
                <iidm:step r="0" x="0" g="0" b="0" rho="0.98039215803146362"/>
                <iidm:step r="0" x="0" g="0" b="0" rho="0.97087383270263672"/>
                <iidm:step r="0" x="0" g="0" b="0" rho="0.96153849363327026"/>
                <iidm:step r="0" x="0" g="0" b="0" rho="0.95238101482391357"/>
            </iidm:ratioTapChanger>
            <iidm:currentLimits1 permanentLimit="30791.998046875"/>
            <iidm:currentLimits2 permanentLimit="30791.998046875"/>
        </iidm:twoWindingsTransformer>
        <iidm:twoWindingsTransformer id="Tr12-1012" r="0" x="0.066666767001152039" g="0" b="0" ratedU1="130" ratedU2="20" node1="6" voltageLevelId1="1012_130" node2="4" voltageLevelId2="B12___20" p1="208.37598340031113" q1="65.8602091781312" p2="-208.37598340031062" q2="-58.212924626331208">
            <iidm:ratioTapChanger lowTapPosition="0" tapPosition="28" targetDeadband="0" loadTapChangingCapabilities="true" regulating="true" targetV="20">
                <iidm:terminalRef id="Tr12-1012" side="TWO"/>
                <iidm:step r="0" x="0" g="0" b="0" rho="1.25"/>
                <iidm:step r="0" x="0" g="0" b="0" rho="1.2345678806304932"/>
                <iidm:step r="0" x="0" g="0" b="0" rho="1.2195122241973877"/>
                <iidm:step r="0" x="0" g="0" b="0" rho="1.2048193216323853"/>
                <iidm:step r="0" x="0" g="0" b="0" rho="1.1904761791229248"/>
                <iidm:step r="0" x="0" g="0" b="0" rho="1.1764705181121826"/>
                <iidm:step r="0" x="0" g="0" b="0" rho="1.1627906560897827"/>
                <iidm:step r="0" x="0" g="0" b="0" rho="1.1494252681732178"/>
                <iidm:step r="0" x="0" g="0" b="0" rho="1.1363636255264282"/>
                <iidm:step r="0" x="0" g="0" b="0" rho="1.1235954761505127"/>
                <iidm:step r="0" x="0" g="0" b="0" rho="1.1111111640930176"/>
                <iidm:step r="0" x="0" g="0" b="0" rho="1.0989010334014893"/>
                <iidm:step r="0" x="0" g="0" b="0" rho="1.0869565010070801"/>
                <iidm:step r="0" x="0" g="0" b="0" rho="1.0752688646316528"/>
                <iidm:step r="0" x="0" g="0" b="0" rho="1.063829779624939"/>
                <iidm:step r="0" x="0" g="0" b="0" rho="1.0526316165924072"/>
                <iidm:step r="0" x="0" g="0" b="0" rho="1.0416667461395264"/>
                <iidm:step r="0" x="0" g="0" b="0" rho="1.0309277772903442"/>
                <iidm:step r="0" x="0" g="0" b="0" rho="1.0204081535339355"/>
                <iidm:step r="0" x="0" g="0" b="0" rho="1.0101009607315063"/>
                <iidm:step r="0" x="0" g="0" b="0" rho="1"/>
                <iidm:step r="0" x="0" g="0" b="0" rho="0.99009901285171509"/>
                <iidm:step r="0" x="0" g="0" b="0" rho="0.98039215803146362"/>
                <iidm:step r="0" x="0" g="0" b="0" rho="0.97087383270263672"/>
                <iidm:step r="0" x="0" g="0" b="0" rho="0.96153849363327026"/>
                <iidm:step r="0" x="0" g="0" b="0" rho="0.95238101482391357"/>
                <iidm:step r="0" x="0" g="0" b="0" rho="0.94339627027511597"/>
                <iidm:step r="0" x="0" g="0" b="0" rho="0.93457937240600586"/>
                <iidm:step r="0" x="0" g="0" b="0" rho="0.92592591047286987"/>
                <iidm:step r="0" x="0" g="0" b="0" rho="0.91743117570877075"/>
                <iidm:step r="0" x="0" g="0" b="0" rho="0.90909087657928467"/>
                <iidm:step r="0" x="0" g="0" b="0" rho="0.90090090036392212"/>
                <iidm:step r="0" x="0" g="0" b="0" rho="0.8928571343421936"/>
            </iidm:ratioTapChanger>
            <iidm:currentLimits1 permanentLimit="17320.5"/>
            <iidm:currentLimits2 permanentLimit="17320.5"/>
        </iidm:twoWindingsTransformer>
        <iidm:twoWindingsTransformer id="Tr4012-g10" r="0" x="0.04218750074505806" g="0" b="0" ratedU1="400" ratedU2="15" node1="6" voltageLevelId1="4012_400" node2="4" voltageLevelId2="BG10__15" p1="-393.07410081478247" q1="-3.4452864643705006" p2="393.07410081478258" q2="31.360456633990118">
            <iidm:ratioTapChanger lowTapPosition="0" tapPosition="10" loadTapChangingCapabilities="false">
                <iidm:step r="0" x="0" g="0" b="0" rho="1.0526316165924072"/>
                <iidm:step r="0" x="0" g="0" b="0" rho="1.0416667461395264"/>
                <iidm:step r="0" x="0" g="0" b="0" rho="1.0309277772903442"/>
                <iidm:step r="0" x="0" g="0" b="0" rho="1.0204081535339355"/>
                <iidm:step r="0" x="0" g="0" b="0" rho="1.0101009607315063"/>
                <iidm:step r="0" x="0" g="0" b="0" rho="1"/>
                <iidm:step r="0" x="0" g="0" b="0" rho="0.99009901285171509"/>
                <iidm:step r="0" x="0" g="0" b="0" rho="0.98039215803146362"/>
                <iidm:step r="0" x="0" g="0" b="0" rho="0.97087383270263672"/>
                <iidm:step r="0" x="0" g="0" b="0" rho="0.96153849363327026"/>
                <iidm:step r="0" x="0" g="0" b="0" rho="0.95238101482391357"/>
            </iidm:ratioTapChanger>
            <iidm:currentLimits1 permanentLimit="30792"/>
            <iidm:currentLimits2 permanentLimit="30792"/>
        </iidm:twoWindingsTransformer>
    </iidm:substation>
    <iidm:substation id="S_1013" country="FR" tso="RTE">
        <iidm:voltageLevel id="1013_130" nominalV="130" highVoltageLimit="136.5" topologyKind="NODE_BREAKER">
            <iidm:nodeBreakerTopology>
                <iidm:busbarSection id="1013_131" node="0"/>
                <iidm:switch id="Tr1013-g2_disconnector1" kind="DISCONNECTOR" retained="true" open="false" node1="0" node2="1"/>
                <iidm:switch id="Tr1013-g2_breaker1" kind="BREAKER" retained="true" open="false" node1="1" node2="2"/>
                <iidm:switch id="Tr13-1013_disconnector1" kind="DISCONNECTOR" retained="true" open="false" node1="0" node2="3"/>
                <iidm:switch id="Tr13-1013_breaker1" kind="BREAKER" retained="true" open="false" node1="3" node2="4"/>
                <iidm:switch id="L1011-1013a_disconnector2" kind="DISCONNECTOR" retained="true" open="false" node1="0" node2="5"/>
                <iidm:switch id="L1011-1013a_breaker2" kind="BREAKER" retained="true" open="false" node1="5" node2="6"/>
                <iidm:switch id="L1011-1013b_disconnector2" kind="DISCONNECTOR" retained="true" open="false" node1="0" node2="7"/>
                <iidm:switch id="L1011-1013b_breaker2" kind="BREAKER" retained="true" open="false" node1="7" node2="8"/>
                <iidm:switch id="L1013-1014a_disconnector1" kind="DISCONNECTOR" retained="true" open="false" node1="0" node2="9"/>
                <iidm:switch id="L1013-1014a_breaker1" kind="BREAKER" retained="true" open="false" node1="9" node2="10"/>
                <iidm:switch id="L1013-1014b_disconnector1" kind="DISCONNECTOR" retained="true" open="false" node1="0" node2="11"/>
                <iidm:switch id="L1013-1014b_breaker1" kind="BREAKER" retained="true" open="false" node1="11" node2="12"/>
                <iidm:bus v="140.34056218263208" angle="39.963126345507163" nodes="0,1,2,3,4,5,6,7,8,9,10,11,12"/>
            </iidm:nodeBreakerTopology>
        </iidm:voltageLevel>
        <iidm:voltageLevel id="B13___20" nominalV="20" highVoltageLimit="21" topologyKind="NODE_BREAKER">
            <iidm:nodeBreakerTopology>
                <iidm:busbarSection id="B13___21" node="0"/>
                <iidm:switch id="13_1_disconnector" kind="DISCONNECTOR" retained="true" open="false" node1="0" node2="1"/>
                <iidm:switch id="13_1_breaker" kind="BREAKER" retained="true" open="false" node1="1" node2="2"/>
                <iidm:switch id="Tr13-1013_disconnector2" kind="DISCONNECTOR" retained="true" open="false" node1="0" node2="3"/>
                <iidm:switch id="Tr13-1013_breaker2" kind="BREAKER" retained="true" open="false" node1="3" node2="4"/>
                <iidm:bus v="20.076617690104378" angle="37.703677298819578" nodes="0,1,2,3,4"/>
            </iidm:nodeBreakerTopology>
            <iidm:load id="13_1" loadType="UNDEFINED" p0="100.00299835205078" q0="34.401699066162109" node="2" p="80.610530451419535" q="27.733766494709695"/>
        </iidm:voltageLevel>
        <iidm:voltageLevel id="BG02__15" nominalV="15" highVoltageLimit="15.750001907348633" topologyKind="NODE_BREAKER">
            <iidm:nodeBreakerTopology>
                <iidm:busbarSection id="BG02__11" node="0"/>
                <iidm:switch id="g02_disconnector" kind="DISCONNECTOR" retained="true" open="false" node1="0" node2="1"/>
                <iidm:switch id="g02_breaker" kind="BREAKER" retained="true" open="false" node1="1" node2="2"/>
                <iidm:switch id="Tr1013-g2_disconnector2" kind="DISCONNECTOR" retained="true" open="false" node1="0" node2="3"/>
                <iidm:switch id="Tr1013-g2_breaker2" kind="BREAKER" retained="true" open="false" node1="3" node2="4"/>
                <iidm:bus v="15.90512037793081" angle="41.76883621564037" nodes="0,1,2,3,4"/>
            </iidm:nodeBreakerTopology>
            <iidm:generator id="g02" energySource="HYDRO" minP="0" maxP="9999" voltageRegulatorOn="true" targetP="300" targetV="15.847498893737793" targetQ="17.233400344848633" node="2" p="-144.27760423264954" q="79.166572255911262">
                <iidm:property name="genreCvg" value="AUTRE"/>
                <iidm:reactiveCapabilityCurve>
                    <iidm:point p="0" minQ="-600" maxQ="600"/>
                    <iidm:point p="9999" minQ="-600" maxQ="600"/>
                </iidm:reactiveCapabilityCurve>
            </iidm:generator>
        </iidm:voltageLevel>
        <iidm:twoWindingsTransformer id="Tr1013-g2" r="0" x="0.056250009685754776" g="0" b="0" ratedU1="130" ratedU2="15" node1="2" voltageLevelId1="1013_130" node2="4" voltageLevelId2="BG02__15" p1="-144.27760423181709" q1="85.188720410848077" p2="144.27760423181709" q2="-79.16657225591139">
            <iidm:ratioTapChanger lowTapPosition="0" tapPosition="5" loadTapChangingCapabilities="false">
                <iidm:step r="0" x="0" g="0" b="0" rho="1.0526316165924072"/>
                <iidm:step r="0" x="0" g="0" b="0" rho="1.0416667461395264"/>
                <iidm:step r="0" x="0" g="0" b="0" rho="1.0309277772903442"/>
                <iidm:step r="0" x="0" g="0" b="0" rho="1.0204081535339355"/>
                <iidm:step r="0" x="0" g="0" b="0" rho="1.0101009607315063"/>
                <iidm:step r="0" x="0" g="0" b="0" rho="1"/>
                <iidm:step r="0" x="0" g="0" b="0" rho="0.99009901285171509"/>
                <iidm:step r="0" x="0" g="0" b="0" rho="0.98039215803146362"/>
                <iidm:step r="0" x="0" g="0" b="0" rho="0.97087383270263672"/>
                <iidm:step r="0" x="0" g="0" b="0" rho="0.96153849363327026"/>
                <iidm:step r="0" x="0" g="0" b="0" rho="0.95238101482391357"/>
            </iidm:ratioTapChanger>
            <iidm:currentLimits1 permanentLimit="23094"/>
            <iidm:currentLimits2 permanentLimit="23094"/>
        </iidm:twoWindingsTransformer>
        <iidm:twoWindingsTransformer id="Tr13-1013" r="0" x="0.20000006258487701" g="0" b="0" ratedU1="130" ratedU2="20" node1="4" voltageLevelId1="1013_130" node2="4" voltageLevelId2="B13___20" p1="80.610530452770533" q1="31.339696619729086" p2="-80.61053045277059" q2="-27.733766493929956">
            <iidm:ratioTapChanger lowTapPosition="0" tapPosition="26" targetDeadband="0" loadTapChangingCapabilities="true" regulating="true" targetV="20">
                <iidm:terminalRef id="Tr13-1013" side="TWO"/>
                <iidm:step r="0" x="0" g="0" b="0" rho="1.25"/>
                <iidm:step r="0" x="0" g="0" b="0" rho="1.2345678806304932"/>
                <iidm:step r="0" x="0" g="0" b="0" rho="1.2195122241973877"/>
                <iidm:step r="0" x="0" g="0" b="0" rho="1.2048193216323853"/>
                <iidm:step r="0" x="0" g="0" b="0" rho="1.1904761791229248"/>
                <iidm:step r="0" x="0" g="0" b="0" rho="1.1764705181121826"/>
                <iidm:step r="0" x="0" g="0" b="0" rho="1.1627906560897827"/>
                <iidm:step r="0" x="0" g="0" b="0" rho="1.1494252681732178"/>
                <iidm:step r="0" x="0" g="0" b="0" rho="1.1363636255264282"/>
                <iidm:step r="0" x="0" g="0" b="0" rho="1.1235954761505127"/>
                <iidm:step r="0" x="0" g="0" b="0" rho="1.1111111640930176"/>
                <iidm:step r="0" x="0" g="0" b="0" rho="1.0989010334014893"/>
                <iidm:step r="0" x="0" g="0" b="0" rho="1.0869565010070801"/>
                <iidm:step r="0" x="0" g="0" b="0" rho="1.0752688646316528"/>
                <iidm:step r="0" x="0" g="0" b="0" rho="1.063829779624939"/>
                <iidm:step r="0" x="0" g="0" b="0" rho="1.0526316165924072"/>
                <iidm:step r="0" x="0" g="0" b="0" rho="1.0416667461395264"/>
                <iidm:step r="0" x="0" g="0" b="0" rho="1.0309277772903442"/>
                <iidm:step r="0" x="0" g="0" b="0" rho="1.0204081535339355"/>
                <iidm:step r="0" x="0" g="0" b="0" rho="1.0101009607315063"/>
                <iidm:step r="0" x="0" g="0" b="0" rho="1"/>
                <iidm:step r="0" x="0" g="0" b="0" rho="0.99009901285171509"/>
                <iidm:step r="0" x="0" g="0" b="0" rho="0.98039215803146362"/>
                <iidm:step r="0" x="0" g="0" b="0" rho="0.97087383270263672"/>
                <iidm:step r="0" x="0" g="0" b="0" rho="0.96153849363327026"/>
                <iidm:step r="0" x="0" g="0" b="0" rho="0.95238101482391357"/>
                <iidm:step r="0" x="0" g="0" b="0" rho="0.94339627027511597"/>
                <iidm:step r="0" x="0" g="0" b="0" rho="0.93457937240600586"/>
                <iidm:step r="0" x="0" g="0" b="0" rho="0.92592591047286987"/>
                <iidm:step r="0" x="0" g="0" b="0" rho="0.91743117570877075"/>
                <iidm:step r="0" x="0" g="0" b="0" rho="0.90909087657928467"/>
                <iidm:step r="0" x="0" g="0" b="0" rho="0.90090090036392212"/>
                <iidm:step r="0" x="0" g="0" b="0" rho="0.8928571343421936"/>
            </iidm:ratioTapChanger>
            <iidm:currentLimits1 permanentLimit="5773.5"/>
            <iidm:currentLimits2 permanentLimit="5773.5"/>
        </iidm:twoWindingsTransformer>
    </iidm:substation>
    <iidm:substation id="S_1014" country="FR" tso="RTE">
        <iidm:voltageLevel id="1014_130" nominalV="130" highVoltageLimit="136.5" topologyKind="NODE_BREAKER">
            <iidm:nodeBreakerTopology>
                <iidm:busbarSection id="1014_131" node="0"/>
                <iidm:switch id="Tr1014-g3_disconnector1" kind="DISCONNECTOR" retained="true" open="false" node1="0" node2="1"/>
                <iidm:switch id="Tr1014-g3_breaker1" kind="BREAKER" retained="true" open="false" node1="1" node2="2"/>
                <iidm:switch id="L1012-1014a_disconnector1" kind="DISCONNECTOR" retained="true" open="false" node1="0" node2="3"/>
                <iidm:switch id="L1012-1014a_breaker1" kind="BREAKER" retained="true" open="false" node1="3" node2="4"/>
                <iidm:switch id="L1012-1014b_disconnector1" kind="DISCONNECTOR" retained="true" open="false" node1="0" node2="5"/>
                <iidm:switch id="L1012-1014b_breaker1" kind="BREAKER" retained="true" open="false" node1="5" node2="6"/>
                <iidm:switch id="L1013-1014a_disconnector2" kind="DISCONNECTOR" retained="true" open="false" node1="0" node2="7"/>
                <iidm:switch id="L1013-1014a_breaker2" kind="BREAKER" retained="true" open="false" node1="7" node2="8"/>
                <iidm:switch id="L1013-1014b_disconnector2" kind="DISCONNECTOR" retained="true" open="false" node1="0" node2="9"/>
                <iidm:switch id="L1013-1014b_breaker2" kind="BREAKER" retained="true" open="false" node1="9" node2="10"/>
                <iidm:bus v="140.40825242781077" angle="42.240816359796874" nodes="0,1,2,3,4,5,6,7,8,9,10"/>
            </iidm:nodeBreakerTopology>
        </iidm:voltageLevel>
        <iidm:voltageLevel id="BG03__15" nominalV="15" highVoltageLimit="15.750001907348633" topologyKind="NODE_BREAKER">
            <iidm:nodeBreakerTopology>
                <iidm:busbarSection id="BG03__11" node="0"/>
                <iidm:switch id="g03_disconnector" kind="DISCONNECTOR" retained="true" open="false" node1="0" node2="1"/>
                <iidm:switch id="g03_breaker" kind="BREAKER" retained="true" open="false" node1="1" node2="2"/>
                <iidm:switch id="Tr1014-g3_disconnector2" kind="DISCONNECTOR" retained="true" open="false" node1="0" node2="3"/>
                <iidm:switch id="Tr1014-g3_breaker2" kind="BREAKER" retained="true" open="false" node1="3" node2="4"/>
                <iidm:bus v="15.950895453498443" angle="46.186184356742544" nodes="0,1,2,3,4"/>
            </iidm:nodeBreakerTopology>
            <iidm:generator id="g03" energySource="HYDRO" minP="0" maxP="9999" voltageRegulatorOn="true" targetP="550" targetV="15.892499923706055" targetQ="20.913200378417969" node="2" p="-368.7832445843996" q="70.024898264313379">
                <iidm:property name="genreCvg" value="AUTRE"/>
                <iidm:reactiveCapabilityCurve>
                    <iidm:point p="0" minQ="-700" maxQ="700"/>
                    <iidm:point p="9999" minQ="-700" maxQ="700"/>
                </iidm:reactiveCapabilityCurve>
            </iidm:generator>
        </iidm:voltageLevel>
        <iidm:twoWindingsTransformer id="Tr1014-g3" r="0" x="0.048214320093393326" g="0" b="0" ratedU1="130" ratedU2="15" node1="2" voltageLevelId1="1014_130" node2="4" voltageLevelId2="BG03__15" p1="-368.78324459533241" q1="96.726110702520884" p2="368.78324459533235" q2="-70.024898264312867">
            <iidm:ratioTapChanger lowTapPosition="0" tapPosition="5" loadTapChangingCapabilities="false">
                <iidm:step r="0" x="0" g="0" b="0" rho="1.0526316165924072"/>
                <iidm:step r="0" x="0" g="0" b="0" rho="1.0416667461395264"/>
                <iidm:step r="0" x="0" g="0" b="0" rho="1.0309277772903442"/>
                <iidm:step r="0" x="0" g="0" b="0" rho="1.0204081535339355"/>
                <iidm:step r="0" x="0" g="0" b="0" rho="1.0101009607315063"/>
                <iidm:step r="0" x="0" g="0" b="0" rho="1"/>
                <iidm:step r="0" x="0" g="0" b="0" rho="0.99009901285171509"/>
                <iidm:step r="0" x="0" g="0" b="0" rho="0.98039215803146362"/>
                <iidm:step r="0" x="0" g="0" b="0" rho="0.97087383270263672"/>
                <iidm:step r="0" x="0" g="0" b="0" rho="0.96153849363327026"/>
                <iidm:step r="0" x="0" g="0" b="0" rho="0.95238101482391357"/>
            </iidm:ratioTapChanger>
            <iidm:currentLimits1 permanentLimit="26943"/>
            <iidm:currentLimits2 permanentLimit="26943"/>
        </iidm:twoWindingsTransformer>
    </iidm:substation>
    <iidm:substation id="S_1021" country="FR" tso="RTE">
        <iidm:voltageLevel id="1021_130" nominalV="130" highVoltageLimit="136.5" topologyKind="NODE_BREAKER">
            <iidm:nodeBreakerTopology>
                <iidm:busbarSection id="1021_131" node="0"/>
                <iidm:switch id="Tr1021-g4_disconnector1" kind="DISCONNECTOR" retained="true" open="false" node1="0" node2="1"/>
                <iidm:switch id="Tr1021-g4_breaker1" kind="BREAKER" retained="true" open="false" node1="1" node2="2"/>
                <iidm:switch id="L1021-1022a_disconnector2" kind="DISCONNECTOR" retained="true" open="false" node1="0" node2="3"/>
                <iidm:switch id="L1021-1022a_breaker2" kind="BREAKER" retained="true" open="false" node1="3" node2="4"/>
                <iidm:switch id="L1021-1022b_disconnector2" kind="DISCONNECTOR" retained="true" open="false" node1="0" node2="5"/>
                <iidm:switch id="L1021-1022b_breaker2" kind="BREAKER" retained="true" open="false" node1="5" node2="6"/>
                <iidm:bus v="138.50340084455991" angle="42.676056595055897" nodes="0,1,2,3,4,5,6"/>
            </iidm:nodeBreakerTopology>
        </iidm:voltageLevel>
        <iidm:voltageLevel id="BG04__15" nominalV="15" highVoltageLimit="15.750001907348633" topologyKind="NODE_BREAKER">
            <iidm:nodeBreakerTopology>
                <iidm:busbarSection id="BG04__11" node="0"/>
                <iidm:switch id="g04_disconnector" kind="DISCONNECTOR" retained="true" open="false" node1="0" node2="1"/>
                <iidm:switch id="g04_breaker" kind="BREAKER" retained="true" open="false" node1="1" node2="2"/>
                <iidm:switch id="Tr1021-g4_disconnector2" kind="DISCONNECTOR" retained="true" open="false" node1="0" node2="3"/>
                <iidm:switch id="Tr1021-g4_breaker2" kind="BREAKER" retained="true" open="false" node1="3" node2="4"/>
                <iidm:bus v="15.585940620146395" angle="45.84145531991004" nodes="0,1,2,3,4"/>
            </iidm:nodeBreakerTopology>
            <iidm:generator id="g04" energySource="HYDRO" minP="0" maxP="9999" voltageRegulatorOn="true" targetP="400" targetV="15.508500099182129" targetQ="30.375099182128906" node="2" p="-244.51392836916548" q="102.75315579471713">
                <iidm:property name="genreCvg" value="AUTRE"/>
                <iidm:reactiveCapabilityCurve>
                    <iidm:point p="0" minQ="-600" maxQ="600"/>
                    <iidm:point p="9999" minQ="-600" maxQ="600"/>
                </iidm:reactiveCapabilityCurve>
            </iidm:generator>
        </iidm:voltageLevel>
        <iidm:twoWindingsTransformer id="Tr1021-g4" r="0" x="0.056250009685754776" g="0" b="0" ratedU1="130" ratedU2="15" node1="2" voltageLevelId1="1021_130" node2="4" voltageLevelId2="BG04__15" p1="-244.51392836679693" q1="119.04204545190508" p2="244.51392836679693" q2="-102.75315579471736">
            <iidm:ratioTapChanger lowTapPosition="0" tapPosition="5" loadTapChangingCapabilities="false">
                <iidm:step r="0" x="0" g="0" b="0" rho="1.0526316165924072"/>
                <iidm:step r="0" x="0" g="0" b="0" rho="1.0416667461395264"/>
                <iidm:step r="0" x="0" g="0" b="0" rho="1.0309277772903442"/>
                <iidm:step r="0" x="0" g="0" b="0" rho="1.0204081535339355"/>
                <iidm:step r="0" x="0" g="0" b="0" rho="1.0101009607315063"/>
                <iidm:step r="0" x="0" g="0" b="0" rho="1"/>
                <iidm:step r="0" x="0" g="0" b="0" rho="0.99009901285171509"/>
                <iidm:step r="0" x="0" g="0" b="0" rho="0.98039215803146362"/>
                <iidm:step r="0" x="0" g="0" b="0" rho="0.97087383270263672"/>
                <iidm:step r="0" x="0" g="0" b="0" rho="0.96153849363327026"/>
                <iidm:step r="0" x="0" g="0" b="0" rho="0.95238101482391357"/>
            </iidm:ratioTapChanger>
            <iidm:currentLimits1 permanentLimit="23094"/>
            <iidm:currentLimits2 permanentLimit="23094"/>
        </iidm:twoWindingsTransformer>
    </iidm:substation>
    <iidm:substation id="S_4022" country="FR" tso="RTE">
        <iidm:voltageLevel id="1022_130" nominalV="130" highVoltageLimit="136.5" topologyKind="NODE_BREAKER">
            <iidm:nodeBreakerTopology>
                <iidm:busbarSection id="1022_131" node="0"/>
                <iidm:switch id="1022-Cap_disconnector" kind="DISCONNECTOR" retained="true" open="false" node1="0" node2="1"/>
                <iidm:switch id="1022-Cap_breaker" kind="BREAKER" retained="true" open="false" node1="1" node2="2"/>
                <iidm:switch id="Tr1022-4022_disconnector2" kind="DISCONNECTOR" retained="true" open="false" node1="0" node2="3"/>
                <iidm:switch id="Tr1022-4022_breaker2" kind="BREAKER" retained="true" open="false" node1="3" node2="4"/>
                <iidm:switch id="Tr1022-g5_disconnector1" kind="DISCONNECTOR" retained="true" open="false" node1="0" node2="5"/>
                <iidm:switch id="Tr1022-g5_breaker1" kind="BREAKER" retained="true" open="false" node1="5" node2="6"/>
                <iidm:switch id="Tr22-1022_disconnector1" kind="DISCONNECTOR" retained="true" open="false" node1="0" node2="7"/>
                <iidm:switch id="Tr22-1022_breaker1" kind="BREAKER" retained="true" open="false" node1="7" node2="8"/>
                <iidm:switch id="L1021-1022a_disconnector1" kind="DISCONNECTOR" retained="true" open="false" node1="0" node2="9"/>
                <iidm:switch id="L1021-1022a_breaker1" kind="BREAKER" retained="true" open="false" node1="9" node2="10"/>
                <iidm:switch id="L1021-1022b_disconnector1" kind="DISCONNECTOR" retained="true" open="false" node1="0" node2="11"/>
                <iidm:switch id="L1021-1022b_breaker1" kind="BREAKER" retained="true" open="false" node1="11" node2="12"/>
                <iidm:bus v="151.5409293070465" angle="30.504356241869477" nodes="0,1,2,3,4,5,6,7,8,9,10,11,12"/>
            </iidm:nodeBreakerTopology>
            <iidm:shunt id="1022-Cap" sectionCount="1" voltageRegulatorOn="false" node="2" q="-67.942761996059943">
                <iidm:property name="qMax" value="50"/>
                <iidm:shuntLinearModel bPerSection="0.002958579920232296" maximumSectionCount="1"/>
            </iidm:shunt>
        </iidm:voltageLevel>
        <iidm:voltageLevel id="4022_400" nominalV="400" highVoltageLimit="420" topologyKind="NODE_BREAKER">
            <iidm:nodeBreakerTopology>
                <iidm:busbarSection id="4022_401" node="0"/>
                <iidm:switch id="Tr1022-4022_disconnector1" kind="DISCONNECTOR" retained="true" open="false" node1="0" node2="1"/>
                <iidm:switch id="Tr1022-4022_breaker1" kind="BREAKER" retained="true" open="false" node1="1" node2="2"/>
                <iidm:switch id="L4011-4022_disconnector2" kind="DISCONNECTOR" retained="true" open="false" node1="0" node2="3"/>
                <iidm:switch id="L4011-4022_breaker2" kind="BREAKER" retained="true" open="false" node1="3" node2="4"/>
                <iidm:switch id="L4012-4022_disconnector2" kind="DISCONNECTOR" retained="true" open="false" node1="0" node2="5"/>
                <iidm:switch id="L4012-4022_breaker2" kind="BREAKER" retained="true" open="false" node1="5" node2="6"/>
                <iidm:switch id="L4022-4031a_disconnector2" kind="DISCONNECTOR" retained="true" open="false" node1="0" node2="7"/>
                <iidm:switch id="L4022-4031a_breaker2" kind="BREAKER" retained="true" open="false" node1="7" node2="8"/>
                <iidm:switch id="L4022-4031b_disconnector2" kind="DISCONNECTOR" retained="true" open="false" node1="0" node2="9"/>
                <iidm:switch id="L4022-4031b_breaker2" kind="BREAKER" retained="true" open="false" node1="9" node2="10"/>
                <iidm:bus v="445.18743735992564" angle="29.612120952185862" nodes="0,1,2,3,4,5,6,7,8,9,10"/>
            </iidm:nodeBreakerTopology>
        </iidm:voltageLevel>
        <iidm:voltageLevel id="B22___20" nominalV="20" highVoltageLimit="21" topologyKind="NODE_BREAKER">
            <iidm:nodeBreakerTopology>
                <iidm:busbarSection id="B22___21" node="0"/>
                <iidm:switch id="22_1_disconnector" kind="DISCONNECTOR" retained="true" open="false" node1="0" node2="1"/>
                <iidm:switch id="22_1_breaker" kind="BREAKER" retained="true" open="false" node1="1" node2="2"/>
                <iidm:switch id="Tr22-1022_disconnector2" kind="DISCONNECTOR" retained="true" open="false" node1="0" node2="3"/>
                <iidm:switch id="Tr22-1022_breaker2" kind="BREAKER" retained="true" open="false" node1="3" node2="4"/>
                <iidm:bus v="20.618725321715615" angle="28.700350083847791" nodes="0,1,2,3,4"/>
            </iidm:nodeBreakerTopology>
            <iidm:load id="22_1" loadType="UNDEFINED" p0="280.01199340820312" q0="79.90679931640625" node="2" p="189.16094390050682" q="53.985225833978234"/>
        </iidm:voltageLevel>
        <iidm:voltageLevel id="BG05__15" nominalV="15" highVoltageLimit="15.750001907348633" topologyKind="NODE_BREAKER">
            <iidm:nodeBreakerTopology>
                <iidm:busbarSection id="BG05__11" node="0"/>
                <iidm:switch id="g05_disconnector" kind="DISCONNECTOR" retained="true" open="false" node1="0" node2="1"/>
                <iidm:switch id="g05_breaker" kind="BREAKER" retained="true" open="false" node1="1" node2="2"/>
                <iidm:switch id="Tr1022-g5_disconnector2" kind="DISCONNECTOR" retained="true" open="false" node1="0" node2="3"/>
                <iidm:switch id="Tr1022-g5_breaker2" kind="BREAKER" retained="true" open="false" node1="3" node2="4"/>
                <iidm:bus v="15.624317749656232" angle="34.53088390734883" nodes="0,1,2,3,4"/>
            </iidm:nodeBreakerTopology>
            <iidm:generator id="g05" energySource="HYDRO" minP="0" maxP="9999" voltageRegulatorOn="true" targetP="200" targetV="15.440999984741211" targetQ="60.0614013671875" node="2" p="-135.33380158205892" q="114.2805811907825">
                <iidm:property name="genreCvg" value="AUTRE"/>
                <iidm:reactiveCapabilityCurve>
                    <iidm:point p="0" minQ="-250" maxQ="250"/>
                    <iidm:point p="9999" minQ="-250" maxQ="250"/>
                </iidm:reactiveCapabilityCurve>
            </iidm:generator>
        </iidm:voltageLevel>
        <iidm:twoWindingsTransformer id="Tr1022-4022" r="0" x="2.0280842781066895" g="0" b="0" ratedU1="400" ratedU2="130" node1="2" voltageLevelId1="4022_400" node2="4" voltageLevelId2="1022_130" p1="-181.01997103661611" q1="310.96366382023308" p2="181.01997103661682" q2="-300.11547644329244">
            <iidm:ratioTapChanger lowTapPosition="0" tapPosition="3" loadTapChangingCapabilities="false">
                <iidm:step r="0" x="0" g="0" b="0" rho="1.1111111640930176"/>
                <iidm:step r="0" x="0" g="0" b="0" rho="1.0989010334014893"/>
                <iidm:step r="0" x="0" g="0" b="0" rho="1.0869565010070801"/>
                <iidm:step r="0" x="0" g="0" b="0" rho="1.0752688646316528"/>
                <iidm:step r="0" x="0" g="0" b="0" rho="1.063829779624939"/>
                <iidm:step r="0" x="0" g="0" b="0" rho="1.0526316165924072"/>
                <iidm:step r="0" x="0" g="0" b="0" rho="1.0416667461395264"/>
                <iidm:step r="0" x="0" g="0" b="0" rho="1.0309277772903442"/>
                <iidm:step r="0" x="0" g="0" b="0" rho="1.0204081535339355"/>
                <iidm:step r="0" x="0" g="0" b="0" rho="1.0101009607315063"/>
                <iidm:step r="0" x="0" g="0" b="0" rho="1"/>
                <iidm:step r="0" x="0" g="0" b="0" rho="0.99009901285171509"/>
                <iidm:step r="0" x="0" g="0" b="0" rho="0.98039215803146362"/>
                <iidm:step r="0" x="0" g="0" b="0" rho="0.97087383270263672"/>
                <iidm:step r="0" x="0" g="0" b="0" rho="0.96153849363327026"/>
                <iidm:step r="0" x="0" g="0" b="0" rho="0.95238101482391357"/>
                <iidm:step r="0" x="0" g="0" b="0" rho="0.94339627027511597"/>
                <iidm:step r="0" x="0" g="0" b="0" rho="0.93457937240600586"/>
                <iidm:step r="0" x="0" g="0" b="0" rho="0.92592591047286987"/>
                <iidm:step r="0" x="0" g="0" b="0" rho="0.91743117570877075"/>
                <iidm:step r="0" x="0" g="0" b="0" rho="0.90909087657928467"/>
            </iidm:ratioTapChanger>
            <iidm:currentLimits1 permanentLimit="3700.820068359375"/>
            <iidm:currentLimits2 permanentLimit="3700.820068359375"/>
        </iidm:twoWindingsTransformer>
        <iidm:twoWindingsTransformer id="Tr1022-g5" r="0" x="0.13500003516674042" g="0" b="0" ratedU1="130" ratedU2="15" node1="6" voltageLevelId1="1022_130" node2="4" voltageLevelId2="BG05__15" p1="-135.33380158326221" q1="131.63138074273442" p2="135.33380158326216" q2="-114.28058119078241">
            <iidm:ratioTapChanger lowTapPosition="0" tapPosition="10" loadTapChangingCapabilities="false">
                <iidm:step r="0" x="0" g="0" b="0" rho="1.0526316165924072"/>
                <iidm:step r="0" x="0" g="0" b="0" rho="1.0416667461395264"/>
                <iidm:step r="0" x="0" g="0" b="0" rho="1.0309277772903442"/>
                <iidm:step r="0" x="0" g="0" b="0" rho="1.0204081535339355"/>
                <iidm:step r="0" x="0" g="0" b="0" rho="1.0101009607315063"/>
                <iidm:step r="0" x="0" g="0" b="0" rho="1"/>
                <iidm:step r="0" x="0" g="0" b="0" rho="0.99009901285171509"/>
                <iidm:step r="0" x="0" g="0" b="0" rho="0.98039215803146362"/>
                <iidm:step r="0" x="0" g="0" b="0" rho="0.97087383270263672"/>
                <iidm:step r="0" x="0" g="0" b="0" rho="0.96153849363327026"/>
                <iidm:step r="0" x="0" g="0" b="0" rho="0.95238101482391357"/>
            </iidm:ratioTapChanger>
            <iidm:currentLimits1 permanentLimit="9622.5"/>
            <iidm:currentLimits2 permanentLimit="9622.5"/>
        </iidm:twoWindingsTransformer>
        <iidm:twoWindingsTransformer id="Tr22-1022" r="0" x="0.071428664028644562" g="0" b="0" ratedU1="130" ratedU2="20" node1="8" voltageLevelId1="1022_130" node2="4" voltageLevelId2="B22___20" p1="189.16094390128671" q1="60.486791832891541" p2="-189.16094390128706" q2="-53.985225833353113">
            <iidm:ratioTapChanger lowTapPosition="0" tapPosition="32" targetDeadband="0" loadTapChangingCapabilities="true" regulating="true" targetV="20">
                <iidm:terminalRef id="Tr22-1022" side="TWO"/>
                <iidm:step r="0" x="0" g="0" b="0" rho="1.25"/>
                <iidm:step r="0" x="0" g="0" b="0" rho="1.2345678806304932"/>
                <iidm:step r="0" x="0" g="0" b="0" rho="1.2195122241973877"/>
                <iidm:step r="0" x="0" g="0" b="0" rho="1.2048193216323853"/>
                <iidm:step r="0" x="0" g="0" b="0" rho="1.1904761791229248"/>
                <iidm:step r="0" x="0" g="0" b="0" rho="1.1764705181121826"/>
                <iidm:step r="0" x="0" g="0" b="0" rho="1.1627906560897827"/>
                <iidm:step r="0" x="0" g="0" b="0" rho="1.1494252681732178"/>
                <iidm:step r="0" x="0" g="0" b="0" rho="1.1363636255264282"/>
                <iidm:step r="0" x="0" g="0" b="0" rho="1.1235954761505127"/>
                <iidm:step r="0" x="0" g="0" b="0" rho="1.1111111640930176"/>
                <iidm:step r="0" x="0" g="0" b="0" rho="1.0989010334014893"/>
                <iidm:step r="0" x="0" g="0" b="0" rho="1.0869565010070801"/>
                <iidm:step r="0" x="0" g="0" b="0" rho="1.0752688646316528"/>
                <iidm:step r="0" x="0" g="0" b="0" rho="1.063829779624939"/>
                <iidm:step r="0" x="0" g="0" b="0" rho="1.0526316165924072"/>
                <iidm:step r="0" x="0" g="0" b="0" rho="1.0416667461395264"/>
                <iidm:step r="0" x="0" g="0" b="0" rho="1.0309277772903442"/>
                <iidm:step r="0" x="0" g="0" b="0" rho="1.0204081535339355"/>
                <iidm:step r="0" x="0" g="0" b="0" rho="1.0101009607315063"/>
                <iidm:step r="0" x="0" g="0" b="0" rho="1"/>
                <iidm:step r="0" x="0" g="0" b="0" rho="0.99009901285171509"/>
                <iidm:step r="0" x="0" g="0" b="0" rho="0.98039215803146362"/>
                <iidm:step r="0" x="0" g="0" b="0" rho="0.97087383270263672"/>
                <iidm:step r="0" x="0" g="0" b="0" rho="0.96153849363327026"/>
                <iidm:step r="0" x="0" g="0" b="0" rho="0.95238101482391357"/>
                <iidm:step r="0" x="0" g="0" b="0" rho="0.94339627027511597"/>
                <iidm:step r="0" x="0" g="0" b="0" rho="0.93457937240600586"/>
                <iidm:step r="0" x="0" g="0" b="0" rho="0.92592591047286987"/>
                <iidm:step r="0" x="0" g="0" b="0" rho="0.91743117570877075"/>
                <iidm:step r="0" x="0" g="0" b="0" rho="0.90909087657928467"/>
                <iidm:step r="0" x="0" g="0" b="0" rho="0.90090090036392212"/>
                <iidm:step r="0" x="0" g="0" b="0" rho="0.8928571343421936"/>
            </iidm:ratioTapChanger>
            <iidm:currentLimits1 permanentLimit="16165.7998046875"/>
            <iidm:currentLimits2 permanentLimit="16165.7998046875"/>
        </iidm:twoWindingsTransformer>
    </iidm:substation>
    <iidm:substation id="S_1041" country="FR" tso="RTE">
        <iidm:voltageLevel id="1041_130" nominalV="130" highVoltageLimit="136.5" topologyKind="NODE_BREAKER">
            <iidm:nodeBreakerTopology>
                <iidm:busbarSection id="1041_131" node="0"/>
                <iidm:switch id="1041-Cap_disconnector" kind="DISCONNECTOR" retained="true" open="false" node1="0" node2="1"/>
                <iidm:switch id="1041-Cap_breaker" kind="BREAKER" retained="true" open="false" node1="1" node2="2"/>
                <iidm:switch id="Tr1-1041_disconnector1" kind="DISCONNECTOR" retained="true" open="false" node1="0" node2="3"/>
                <iidm:switch id="Tr1-1041_breaker1" kind="BREAKER" retained="true" open="false" node1="3" node2="4"/>
                <iidm:switch id="L1041-1043a_disconnector1" kind="DISCONNECTOR" retained="true" open="false" node1="0" node2="5"/>
                <iidm:switch id="L1041-1043a_breaker1" kind="BREAKER" retained="true" open="false" node1="5" node2="6"/>
                <iidm:switch id="L1041-1043b_disconnector1" kind="DISCONNECTOR" retained="true" open="false" node1="0" node2="7"/>
                <iidm:switch id="L1041-1043b_breaker1" kind="BREAKER" retained="true" open="false" node1="7" node2="8"/>
                <iidm:switch id="L1041-1045a_disconnector1" kind="DISCONNECTOR" retained="true" open="false" node1="0" node2="9"/>
...